<?xml version="1.0" encoding="UTF-8"?>
<types>
    <type id="T1" priority="1" numLanes="1" speed="11.111"/>
    <type id="T2" priority="1" numLanes="2" speed="13.889"/>
    <type id="T3" priority="1" numLanes="3" speed="19.444"/>
    <type id="T4" priority="1" numLanes="4" speed="13.889"/>
    <type id="T5" priority="1" numLanes="5" speed="13.889"/>
    <type id="T6" priority="1" numLanes="6" speed="13.889"/>
</types>